lig
 OpenBabel02152417033D

 52 54  0  0  0  0  0  0  0  0999 V2000
    3.5284    1.3660    0.1076 C   0  0  0  0  0  0  0  0  0  0  0  0
    2.0332    1.4110    0.1118 C   0  0  0  0  0  0  0  0  0  0  0  0
    1.3400    0.1676    0.1363 C   0  0  0  0  0  0  0  0  0  0  0  0
   -0.0742    0.1207    0.1419 C   0  0  0  0  0  0  0  0  0  0  0  0
   -0.8386    1.3283    0.1230 C   0  0  0  0  0  0  0  0  0  0  0  0
   -0.0895    2.5363    0.0990 C   0  0  0  0  0  0  0  0  0  0  0  0
    1.3200    2.6442    0.0923 C   0  0  0  0  0  0  0  0  0  0  0  0
    1.9052    4.0223    0.0658 C   0  0  0  0  0  0  0  0  0  0  0  0
   -2.2286    1.2606    0.1289 N   0  0  0  0  0  0  0  0  0  0  0  0
   -2.8385    0.0143    0.1531 C   0  0  0  0  0  0  0  0  0  0  0  0
   -4.2041   -0.1646    0.1609 N   0  0  0  0  0  0  0  0  0  0  0  0
   -4.8206   -1.3538    0.1841 C   0  0  0  0  0  0  0  0  0  0  0  0
   -6.0724   -1.3962    0.1891 O   0  0  0  0  0  0  0  0  0  0  0  0
   -4.0700   -2.4795    0.2016 N   0  0  0  0  0  0  0  0  0  0  0  0
   -2.7110   -2.4285    0.1961 C   0  0  0  0  0  0  0  0  0  0  0  0
   -2.0630   -3.5023    0.2131 O   0  0  0  0  0  0  0  0  0  0  0  0
   -2.0631   -1.1805    0.1718 C   0  0  0  0  0  0  0  0  0  0  0  0
   -0.7078   -1.0805    0.1654 N   0  0  0  0  0  0  0  0  0  0  0  0
   -3.2104    2.3594    0.1127 C   0  0  0  0  0  0  0  0  0  0  0  0
   -3.0531    3.8966    0.0848 C   0  0  2  0  0  0  0  0  0  0  0  0
   -4.4361    4.5508    0.0778 C   0  0  1  0  0  0  0  0  0  0  0  0
   -4.2804    6.0726    0.0502 C   0  0  1  0  0  0  0  0  0  0  0  0
   -5.6634    6.7268    0.0432 C   0  0  0  0  0  0  0  0  0  0  0  0
   -5.5189    8.1392    0.0176 O   0  0  0  0  0  0  0  0  0  0  0  0
   -6.9110    8.7976    0.0106 P   0  0  0  0  0  0  0  0  0  0  0  0
   -6.7644   10.2299   -0.0154 O   0  0  0  0  0  0  0  0  0  0  0  0
   -7.6812    8.3833    1.2782 O   0  0  0  0  0  0  0  0  0  0  0  0
   -7.6897    8.3386   -1.2362 O   0  0  0  0  0  0  0  0  0  0  0  0
   -3.5624    6.4958    1.1999 O   0  0  0  0  0  0  0  0  0  0  0  0
   -5.1541    4.1275   -1.0719 O   0  0  0  0  0  0  0  0  0  0  0  0
   -2.3429    4.2786   -1.0840 O   0  0  0  0  0  0  0  0  0  0  0  0
    3.8731    0.8257   -0.7741 H   0  0  0  0  0  0  0  0  0  0  0  0
    3.8791    0.8574    1.0056 H   0  0  0  0  0  0  0  0  0  0  0  0
    3.9224    2.3821    0.0882 H   0  0  0  0  0  0  0  0  0  0  0  0
    1.8538   -0.7304    0.1505 H   0  0  0  0  0  0  0  0  0  0  0  0
   -0.6122    3.3991    0.0854 H   0  0  0  0  0  0  0  0  0  0  0  0
    1.5772    4.5733    0.9473 H   0  0  0  0  0  0  0  0  0  0  0  0
    1.5712    4.5417   -0.8324 H   0  0  0  0  0  0  0  0  0  0  0  0
    2.9931    3.9551    0.0634 H   0  0  0  0  0  0  0  0  0  0  0  0
   -4.5166   -3.3320    0.2183 H   0  0  0  0  0  0  0  0  0  0  0  0
   -4.0685    2.0709   -0.4944 H   0  0  0  0  0  0  0  0  0  0  0  0
   -3.7064    2.2028    1.0706 H   0  0  0  0  0  0  0  0  0  0  0  0
   -2.5019    4.2215    0.9673 H   0  0  0  0  0  0  0  0  0  0  0  0
   -4.9813    4.2576    0.9750 H   0  0  0  0  0  0  0  0  0  0  0  0
   -3.7352    6.3658   -0.8470 H   0  0  0  0  0  0  0  0  0  0  0  0
   -6.2146    6.4019   -0.8393 H   0  0  0  0  0  0  0  0  0  0  0  0
   -6.2086    6.4335    0.9404 H   0  0  0  0  0  0  0  0  0  0  0  0
   -8.5671    8.8024    1.2737 H   0  0  0  0  0  0  0  0  0  0  0  0
   -8.5755    8.7576   -1.2407 H   0  0  0  0  0  0  0  0  0  0  0  0
   -3.4626    7.4706    1.1822 H   0  0  0  0  0  0  0  0  0  0  0  0
   -4.6640    4.3912   -1.8785 H   0  0  0  0  0  0  0  0  0  0  0  0
   -2.8384    3.9865   -1.8775 H   0  0  0  0  0  0  0  0  0  0  0  0
  1  2  1  0  0  0  0
  1 32  1  0  0  0  0
  1 33  1  0  0  0  0
  1 34  1  0  0  0  0
  2  3  2  0  0  0  0
  2  7  1  0  0  0  0
  3  4  1  0  0  0  0
  3 35  1  0  0  0  0
  4  5  2  0  0  0  0
  4 18  1  0  0  0  0
  5  6  1  0  0  0  0
  5  9  1  0  0  0  0
  6  7  2  0  0  0  0
  6 36  1  0  0  0  0
  7  8  1  0  0  0  0
  8 37  1  0  0  0  0
  8 38  1  0  0  0  0
  8 39  1  0  0  0  0
  9 10  1  0  0  0  0
  9 19  1  0  0  0  0
 10 11  2  0  0  0  0
 10 17  1  0  0  0  0
 11 12  1  0  0  0  0
 12 13  2  0  0  0  0
 12 14  1  0  0  0  0
 14 15  1  0  0  0  0
 14 40  1  0  0  0  0
 15 16  2  0  0  0  0
 15 17  1  0  0  0  0
 17 18  2  0  0  0  0
 19 20  1  0  0  0  0
 19 41  1  0  0  0  0
 19 42  1  0  0  0  0
 20 21  1  0  0  0  0
 20 31  1  0  0  0  0
 20 43  1  1  0  0  0
 21 22  1  0  0  0  0
 21 30  1  0  0  0  0
 21 44  1  1  0  0  0
 22 23  1  0  0  0  0
 22 29  1  0  0  0  0
 22 45  1  6  0  0  0
 23 24  1  0  0  0  0
 23 46  1  0  0  0  0
 23 47  1  0  0  0  0
 24 25  1  0  0  0  0
 25 26  2  0  0  0  0
 25 27  1  0  0  0  0
 25 28  1  0  0  0  0
 27 48  1  0  0  0  0
 28 49  1  0  0  0  0
 29 50  1  0  0  0  0
 30 51  1  0  0  0  0
 31 52  1  0  0  0  0
M  END
