@<TRIPOS>MOLECULE
lig
 52 54 0 0 0
SMALL
GASTEIGER

@<TRIPOS>ATOM
      1 C           3.5284    1.3660    0.1076 C.3     1  UNL11      -0.0394
      2 C           2.0332    1.4110    0.1118 C.3     1  UNL11      -0.0454
      3 C           1.3400    0.1676    0.1363 C.3     1  UNL11      -0.0311
      4 C          -0.0742    0.1207    0.1419 C.3     1  UNL11       0.0886
      5 C          -0.8386    1.3283    0.1230 C.3     1  UNL11       0.0694
      6 C          -0.0895    2.5363    0.0990 C.3     1  UNL11      -0.0329
      7 C           1.3200    2.6442    0.0923 C.3     1  UNL11      -0.0455
      8 C           1.9052    4.0223    0.0658 C.3     1  UNL11      -0.0394
      9 N          -2.2286    1.2606    0.1289 N.pl3   1  UNL11      -0.3195
     10 C          -2.8385    0.0143    0.1531 C.3     1  UNL11       0.1705
     11 N          -4.2041   -0.1646    0.1609 N.am    1  UNL11      -0.1733
     12 C          -4.8206   -1.3538    0.1841 C.2     1  UNL11       0.3505
     13 O          -6.0724   -1.3962    0.1891 O.2     1  UNL11      -0.2446
     14 N          -4.0700   -2.4795    0.2016 N.am    1  UNL11      -0.2717
     15 C          -2.7110   -2.4285    0.1961 C.2     1  UNL11       0.2817
     16 O          -2.0630   -3.5023    0.2131 O.2     1  UNL11      -0.2653
     17 C          -2.0631   -1.1805    0.1718 C.3     1  UNL11       0.1712
     18 N          -0.7078   -1.0805    0.1654 N.pl3   1  UNL11      -0.2368
     19 C          -3.2104    2.3594    0.1127 C.3     1  UNL11       0.0538
     20 C          -3.0531    3.8966    0.0848 C.3     1  UNL11       0.1014
     21 C          -4.4361    4.5508    0.0778 C.3     1  UNL11       0.1106
     22 C          -4.2804    6.0726    0.0502 C.3     1  UNL11       0.1073
     23 C          -5.6634    6.7268    0.0432 C.3     1  UNL11       0.0875
     24 O          -5.5189    8.1392    0.0176 O.3     1  UNL11      -0.2841
     25 P          -6.9110    8.7976    0.0106 P.3     1  UNL11       0.4724
     26 O          -6.7644   10.2299   -0.0154 O.2     1  UNL11      -0.2275
     27 O          -7.6812    8.3833    1.2782 O.3     1  UNL11      -0.3026
     28 O          -7.6897    8.3386   -1.2362 O.3     1  UNL11      -0.3026
     29 O          -3.5624    6.4958    1.1999 O.3     1  UNL11      -0.3868
     30 O          -5.1541    4.1275   -1.0719 O.3     1  UNL11      -0.3865
     31 O          -2.3429    4.2786   -1.0840 O.3     1  UNL11      -0.3874
     32 H           3.8731    0.8257   -0.7741 H       1  UNL11       0.0278
     33 H           3.8791    0.8574    1.0056 H       1  UNL11       0.0278
     34 H           3.9224    2.3821    0.0882 H       1  UNL11       0.0278
     35 H           1.8538   -0.7304    0.1505 H       1  UNL11       0.0642
     36 H          -0.6122    3.3991    0.0854 H       1  UNL11       0.0641
     37 H           1.5772    4.5733    0.9473 H       1  UNL11       0.0278
     38 H           1.5712    4.5417   -0.8324 H       1  UNL11       0.0278
     39 H           2.9931    3.9551    0.0634 H       1  UNL11       0.0278
     40 H          -4.5166   -3.3320    0.2183 H       1  UNL11       0.1735
     41 H          -4.0685    2.0709   -0.4944 H       1  UNL11       0.0519
     42 H          -3.7064    2.2028    1.0706 H       1  UNL11       0.0519
     43 H          -2.5019    4.2215    0.9673 H       1  UNL11       0.0638
     44 H          -4.9813    4.2576    0.9750 H       1  UNL11       0.0646
     45 H          -3.7352    6.3658   -0.8470 H       1  UNL11       0.0643
     46 H          -6.2146    6.4019   -0.8393 H       1  UNL11       0.0592
     47 H          -6.2086    6.4335    0.9404 H       1  UNL11       0.0592
     48 H          -8.5671    8.8024    1.2737 H       1  UNL11       0.2220
     49 H          -8.5755    8.7576   -1.2407 H       1  UNL11       0.2220
     50 H          -3.4626    7.4706    1.1822 H       1  UNL11       0.2100
     51 H          -4.6640    4.3912   -1.8785 H       1  UNL11       0.2100
     52 H          -2.8384    3.9865   -1.8775 H       1  UNL11       0.2100
@<TRIPOS>BOND
     1     1     2    1
     2     2     3   ar
     3     3     4   ar
     4     4     5   ar
     5     5     6   ar
     6     6     7   ar
     7     2     7   ar
     8     7     8    1
     9     5     9   ar
    10     9    10   ar
    11    10    11   ar
    12    11    12   ar
    13    12    13    2
    14    12    14   ar
    15    14    15   ar
    16    15    16    2
    17    15    17   ar
    18    10    17    1
    19    17    18   ar
    20     4    18   ar
    21     9    19    1
    22    19    20    1
    23    20    21    1
    24    21    22    1
    25    22    23    1
    26    23    24    1
    27    24    25    1
    28    25    26    2
    29    25    27    1
    30    25    28    1
    31    22    29    1
    32    21    30    1
    33    20    31    1
    34     1    32    1
    35     1    33    1
    36     1    34    1
    37     3    35    1
    38     6    36    1
    39     8    37    1
    40     8    38    1
    41     8    39    1
    42    14    40    1
    43    19    41    1
    44    19    42    1
    45    20    43    1
    46    21    44    1
    47    22    45    1
    48    23    46    1
    49    23    47    1
    50    27    48    1
    51    28    49    1
    52    29    50    1
    53    30    51    1
    54    31    52    1
