
  Mrv15b2302152417002D          

 52 54  0  0  0  0            999 V2000
   -5.0013    0.4125    0.0000 C   0  0  0  0  0  0  0  0  0  0  0  0
   -4.2868   -0.0000    0.0000 C   0  0  0  0  0  0  0  0  0  0  0  0
   -4.2868   -0.8250    0.0000 C   0  0  0  0  0  0  0  0  0  0  0  0
   -3.5724   -1.2375    0.0000 C   0  0  0  0  0  0  0  0  0  0  0  0
   -2.8579   -0.8250    0.0000 C   0  0  0  0  0  0  0  0  0  0  0  0
   -2.8579   -0.0000    0.0000 C   0  0  0  0  0  0  0  0  0  0  0  0
   -3.5724    0.4125    0.0000 C   0  0  0  0  0  0  0  0  0  0  0  0
   -3.5724    1.2375    0.0000 C   0  0  0  0  0  0  0  0  0  0  0  0
   -2.1434   -1.2375    0.0000 N   0  0  0  0  0  0  0  0  0  0  0  0
   -2.1434   -2.0625    0.0000 C   0  0  0  0  0  0  0  0  0  0  0  0
   -1.4289   -2.4750    0.0000 N   0  0  0  0  0  0  0  0  0  0  0  0
   -1.4289   -3.3000    0.0000 C   0  0  0  0  0  0  0  0  0  0  0  0
   -0.7145   -3.7125    0.0000 O   0  0  0  0  0  0  0  0  0  0  0  0
   -2.1434   -3.7125    0.0000 N   0  0  0  0  0  0  0  0  0  0  0  0
   -2.8579   -3.3000    0.0000 C   0  0  0  0  0  0  0  0  0  0  0  0
   -3.5724   -3.7125    0.0000 O   0  0  0  0  0  0  0  0  0  0  0  0
   -2.8579   -2.4750    0.0000 C   0  0  0  0  0  0  0  0  0  0  0  0
   -3.5724   -2.0625    0.0000 N   0  0  0  0  0  0  0  0  0  0  0  0
   -1.4289   -0.8250    0.0000 C   0  0  0  0  0  0  0  0  0  0  0  0
   -0.7145   -1.2375    0.0000 C   0  0  0  0  0  0  0  0  0  0  0  0
    0.0000   -0.8250    0.0000 C   0  0  0  0  0  0  0  0  0  0  0  0
    0.7145   -1.2375    0.0000 C   0  0  0  0  0  0  0  0  0  0  0  0
    1.4289   -0.8250    0.0000 C   0  0  0  0  0  0  0  0  0  0  0  0
    2.1434   -1.2375    0.0000 O   0  0  0  0  0  0  0  0  0  0  0  0
    2.8579   -0.8250    0.0000 P   0  0  0  0  0  0  0  0  0  0  0  0
    3.5724   -0.4125    0.0000 O   0  0  0  0  0  0  0  0  0  0  0  0
    3.2704   -1.5395    0.0000 O   0  0  0  0  0  0  0  0  0  0  0  0
    2.4454   -0.1105    0.0000 O   0  0  0  0  0  0  0  0  0  0  0  0
    0.7145   -2.0625    0.0000 O   0  0  0  0  0  0  0  0  0  0  0  0
    0.0000   -0.0000    0.0000 O   0  0  0  0  0  0  0  0  0  0  0  0
   -0.7145   -2.0625    0.0000 O   0  0  0  0  0  0  0  0  0  0  0  0
   -4.5888    1.1270    0.0000 H   0  0  0  0  0  0  0  0  0  0  0  0
   -5.7158    0.8250    0.0000 H   0  0  0  0  0  0  0  0  0  0  0  0
   -5.4138   -0.3020    0.0000 H   0  0  0  0  0  0  0  0  0  0  0  0
   -5.0013   -1.2375    0.0000 H   0  0  0  0  0  0  0  0  0  0  0  0
   -2.1434    0.4125    0.0000 H   0  0  0  0  0  0  0  0  0  0  0  0
   -2.7474    1.2375    0.0000 H   0  0  0  0  0  0  0  0  0  0  0  0
   -3.5724    2.0625    0.0000 H   0  0  0  0  0  0  0  0  0  0  0  0
   -4.3570    1.4924    0.0000 H   0  0  0  0  0  0  0  0  0  0  0  0
   -2.1434   -4.5375    0.0000 H   0  0  0  0  0  0  0  0  0  0  0  0
   -1.8163   -0.0966    0.0000 H   0  0  0  0  0  0  0  0  0  0  0  0
   -1.0416   -0.0966    0.0000 H   0  0  0  0  0  0  0  0  0  0  0  0
   -0.7145   -0.4125    0.0000 H   0  0  0  0  0  0  0  0  0  0  0  0
    0.0000   -1.6500    0.0000 H   0  0  0  0  0  0  0  0  0  0  0  0
    0.7145   -0.4125    0.0000 H   0  0  0  0  0  0  0  0  0  0  0  0
    1.0416   -0.0966    0.0000 H   0  0  0  0  0  0  0  0  0  0  0  0
    1.8163   -0.0966    0.0000 H   0  0  0  0  0  0  0  0  0  0  0  0
    4.0954   -1.5395    0.0000 H   0  0  0  0  0  0  0  0  0  0  0  0
    2.8579    0.6039    0.0000 H   0  0  0  0  0  0  0  0  0  0  0  0
    1.4289   -2.4750    0.0000 H   0  0  0  0  0  0  0  0  0  0  0  0
    0.7145    0.4125    0.0000 H   0  0  0  0  0  0  0  0  0  0  0  0
    0.0000   -2.4750    0.0000 H   0  0  0  0  0  0  0  0  0  0  0  0
  1  2  1  0  0  0  0
  2  3  2  0  0  0  0
  3  4  1  0  0  0  0
  4  5  2  0  0  0  0
  5  6  1  0  0  0  0
  6  7  2  0  0  0  0
  2  7  1  0  0  0  0
  7  8  1  0  0  0  0
  5  9  1  0  0  0  0
  9 10  1  0  0  0  0
 10 11  2  0  0  0  0
 11 12  1  0  0  0  0
 12 13  2  0  0  0  0
 12 14  1  0  0  0  0
 14 15  1  0  0  0  0
 15 16  2  0  0  0  0
 15 17  1  0  0  0  0
 10 17  1  0  0  0  0
 17 18  2  0  0  0  0
  4 18  1  0  0  0  0
  9 19  1  0  0  0  0
 19 20  1  0  0  0  0
 20 21  1  0  0  0  0
 21 22  1  0  0  0  0
 22 23  1  0  0  0  0
 23 24  1  0  0  0  0
 24 25  1  0  0  0  0
 25 26  2  0  0  0  0
 25 27  1  0  0  0  0
 25 28  1  0  0  0  0
 22 29  1  0  0  0  0
 21 30  1  0  0  0  0
 20 31  1  0  0  0  0
  1 32  1  0  0  0  0
  1 33  1  0  0  0  0
  1 34  1  0  0  0  0
  3 35  1  0  0  0  0
  6 36  1  0  0  0  0
  8 37  1  0  0  0  0
  8 38  1  0  0  0  0
  8 39  1  0  0  0  0
 14 40  1  0  0  0  0
 19 41  1  0  0  0  0
 19 42  1  0  0  0  0
 20 43  1  0  0  0  0
 21 44  1  0  0  0  0
 22 45  1  0  0  0  0
 23 46  1  0  0  0  0
 23 47  1  0  0  0  0
 27 48  1  0  0  0  0
 28 49  1  0  0  0  0
 29 50  1  0  0  0  0
 30 51  1  0  0  0  0
 31 52  1  0  0  0  0
M  END
